71
cholesterol
C   -5.4256   -0.8324    1.1710 
C   -5.1649   -2.3158    1.4009 
C   -3.7956   -2.5132    2.0400 
C   -2.7132   -1.9112    1.1682 
C   -2.8871   -0.4571    0.7414 
C   -4.3443   -0.2454    0.2532 
C   -1.6283   -2.6370    0.8498 
C   -0.4829   -2.1523    0.0083 
C   -0.4755   -0.6277   -0.1748 
C   -1.9154   -0.1295   -0.4346 
C    0.4161   -0.2236   -1.3588 
C    0.5035    1.2995   -1.6372 
C   -0.9477    1.6598   -2.0360 
C   -1.9361    1.3450   -0.8961 
C    1.8502   -0.7421   -1.4523 
C    2.3630    0.0245   -2.6895 
C    1.4874    1.2946   -2.8323 
O   -6.1791   -2.8505    2.2541 
C   -2.6170    0.4324    1.9758 
C    1.0354    2.1963   -0.4644 
C    2.5689    2.2415   -0.2339 
C    2.9890    2.0165    1.2292 
C    4.5146    2.1446    1.3889 
C    5.0384    1.8018    2.7969 
C    6.5018    2.2585    2.9430 
C    4.9377    0.2960    3.0968 
C    0.5793    3.6724   -0.5566 
H   -5.4483   -0.2915    2.1449 
H   -6.4316   -0.6952    0.7063 
H   -5.2222   -2.8739    0.4365 
H   -3.6294   -3.6024    2.2083 
H   -3.7666   -2.0340    3.0448 
H   -4.5536    0.8408    0.1150 
H   -4.4725   -0.7259   -0.7465 
H   -1.5586   -3.6820    1.1966 
H   -0.5642   -2.6716   -0.9753 
H    0.4764   -2.4718    0.4803 
H   -0.0807   -0.1735    0.7616 
H   -2.2700   -0.7229   -1.3170 
H   -0.0734   -0.7003   -2.2500 
H   -1.2681    1.0802   -2.9340 
H   -1.0227    2.7208   -2.3614 
H   -1.7082    2.0014   -0.0303 
H   -2.9573    1.6275   -1.2433 
H    1.9128   -1.8453   -1.5916 
H    2.4043   -0.4980   -0.5203 
H    2.2361   -0.6147   -3.5965 
H    3.4509    0.2498   -2.6170 
H    2.0853    2.2300   -2.8960 
H    0.9228    1.2346   -3.7923 
H   -6.0627   -3.7851    2.2746 
H   -2.8037    1.5087    1.7721 
H   -3.2749    0.1803    2.8349 
H   -1.5723    0.3315    2.3430 
H    0.5761    1.8134    0.4771 
H    2.9891    3.2104   -0.5910 
H    3.1127    1.4921   -0.8378 
H    2.6522    1.0004    1.5393 
H    2.4809    2.7560    1.8920 
H    4.7946    3.1969    1.1414 
H    5.0315    1.4918    0.6467 
H    4.4271    2.3596    3.5500 
H    6.8967    2.0329    3.9597 
H    6.6025    3.3570    2.7878 
H    7.1580    1.7483    2.2016 
H    5.3522    0.0588    4.1029 
H    5.5062   -0.3016    2.3483 
H    3.8850   -0.0630    3.0907 
H   -0.5180    3.8111   -0.4541 
H    0.8942    4.1304   -1.5215 
H    1.0148    4.2826    0.2680 
