66
cyclophane
C    1.2197   -0.7042    1.4657
C    1.2197    0.7042    1.4658
C    0.0000    1.4084    1.4658
C   -1.2196    0.7042    1.4658
C   -1.2197   -0.7042    1.4658
C    0.0000   -1.4084    1.4658
C    2.5290   -1.4694    1.3459
C    3.2841   -1.3594    0.0000
C   -2.5290    1.4694    1.3460
C    2.5371    1.4555    1.3459
C    2.8193    2.1644    0.0000
C   -2.5370   -1.4555    1.3459
C    0.0081    2.9249    1.3460
C   -0.4648    3.5237    0.0000
C   -0.0080   -2.9249    1.3459
H    2.3749   -2.4330    1.5512
H    3.1601   -1.1557    2.0542
H    3.9723   -2.1077    0.0000
H    3.7738   -0.4203    0.0000
H   -3.1601    1.1557    2.0542
H   -2.3748    2.4331    1.5512
H    2.5810    2.1588    2.0542
H    3.2946    0.8402    1.5511
H    2.2509    3.0581    0.0000
H    3.8115    2.3863    0.0000
H   -2.5809   -2.1588    2.0543
H   -3.2945   -0.8402    1.5512
H   -0.5791    3.3145    2.0542
H    0.9197    3.2732    1.5512
H   -1.5229    3.4784    0.0000
H   -0.1609    4.4940    0.0000
H    0.5792   -3.3146    2.0542
H   -0.9197   -3.2732    1.5512
C    2.5290   -1.4694   -1.3460
C    1.2196   -0.7042   -1.4658
C    0.0000   -1.4084   -1.4658
C   -1.2197   -0.7042   -1.4658
C   -1.2197    0.7042   -1.4657
C    0.0000    1.4084   -1.4658
C    1.2197    0.7042   -1.4658
C    2.5370    1.4555   -1.3459
H    2.5809    2.1588   -2.0543
H    3.2945    0.8402   -1.5512
C    0.0080    2.9249   -1.3459
H   -0.5792    3.3146   -2.0542
H    0.9197    3.2732   -1.5512
C   -2.5290    1.4694   -1.3459
C   -3.2841    1.3594    0.0000
H   -3.9723    2.1077    0.0000
H   -3.7738    0.4203    0.0000
H   -2.3749    2.4330   -1.5512
H   -3.1601    1.1557   -2.0542
C   -2.5371   -1.4555   -1.3459
C   -2.8193   -2.1644    0.0000
H   -2.2509   -3.0581    0.0000
H   -3.8115   -2.3863    0.0000
H   -2.5810   -2.1588   -2.0542
H   -3.2946   -0.8402   -1.5511
C   -0.0081   -2.9249   -1.3460
C    0.4648   -3.5237    0.0000
H    1.5229   -3.4784    0.0000
H    0.1609   -4.4940    0.0000
H    0.5791   -3.3145   -2.0542
H   -0.9197   -3.2732   -1.5512
H    3.1601   -1.1557   -2.0542
H    2.3748   -2.4331   -1.5512
