40
molecule
C    0.7719    1.0624    1.7190
C    1.2489    1.7190    0.4058
H    1.1311    1.5567    2.5189
H    1.8300    2.5189    0.5946
C    1.2490   -0.4057    1.7190
C    0.0001   -1.3132    1.7190
C   -1.2489   -0.4058    1.7190
C   -2.0208   -0.6566    0.4058
C   -2.0208    0.6566   -0.4058
C   -1.2489    1.7190    0.4058
C   -0.0000    2.1248   -0.4058
C   -0.7719    1.0624    1.7190
H   -1.8301   -0.5946    2.5189
H   -1.8302    2.5188    0.5946
H   -1.1310    1.5568    2.5189
C    2.0208    0.6566   -0.4058
C    1.2489    0.4058   -1.7190
C    2.0208   -0.6566    0.4058
C    1.2489   -1.7190   -0.4058
C    0.0000   -2.1248    0.4058
C   -1.2489   -1.7190   -0.4058
C   -0.7719   -1.0624   -1.7190
C   -1.2490    0.4057   -1.7190
C   -0.0001    1.3132   -1.7190
C    0.7719   -1.0624   -1.7190
H    1.8302   -2.5188   -0.5946
H   -1.1311   -1.5567   -2.5189
H    1.1310   -1.5568   -2.5189
H    1.8301    0.5946   -2.5189
H   -0.0000    3.1135   -0.5947
H   -0.0000    1.9243   -2.5189
H   -2.9611    0.9621   -0.5946
H   -1.8301    0.5946   -2.5188
H   -2.9611   -0.9622    0.5947
H   -1.8300   -2.5189   -0.5946
H    0.0000   -1.9243    2.5189
H    0.0000   -3.1135    0.5947
H    1.8301   -0.5946    2.5188
H    2.9611   -0.9621    0.5946
H    2.9611    0.9622   -0.5947
Jmol script terminated
