    2
Mode_1    133.5 cm-1          test
O     0.0440    2.0685    1.9304  -0.0099   0.0145   0.0972
O     0.0440    2.0685    5.8724  -0.0099   0.0145   0.0972
    40
Mode_1    133.5 cm-1          
Sr    0.0357    0.0291    3.9409   0.2497   0.0471  -0.0333
Sr    0.0357    0.0291    7.8830   0.2497   0.0471  -0.0333
Sr    0.0357    3.9711    3.9409   0.2497   0.0471  -0.0333
Sr    0.0357    3.9711    7.8830   0.2497   0.0471  -0.0333
Sr    3.9777    0.0291    3.9409   0.2497   0.0471  -0.0333
Sr    3.9777    0.0291    7.8830   0.2497   0.0471  -0.0333
Sr    3.9777    3.9711    3.9409   0.2497   0.0471  -0.0333
Sr    3.9777    3.9711    7.8830   0.2497   0.0471  -0.0333
Ti    2.0064    1.9920    1.9827  -0.1061   0.0854  -0.3909
Ti    2.0064    1.9920    5.9248  -0.1061   0.0854  -0.3909
Ti    2.0064    5.9340    1.9827  -0.1061   0.0854  -0.3909
Ti    2.0064    5.9340    5.9248  -0.1061   0.0854  -0.3909
Ti    5.9484    1.9920    1.9827  -0.1061   0.0854  -0.3909
Ti    5.9484    1.9920    5.9248  -0.1061   0.0854  -0.3909
Ti    5.9484    5.9340    1.9827  -0.1061   0.0854  -0.3909
Ti    5.9484    5.9340    5.9248  -0.1061   0.0854  -0.3909
O     0.0440    2.0685    1.9304  -0.0099   0.0145   0.0972
O     0.0440    2.0685    5.8724  -0.0099   0.0145   0.0972
O     0.0440    6.0106    1.9304  -0.0099   0.0145   0.0972
O     0.0440    6.0106    5.8724  -0.0099   0.0145   0.0972
O     3.9860    2.0685    1.9304  -0.0099   0.0145   0.0972
O     3.9860    2.0685    5.8724  -0.0099   0.0145   0.0972
O     3.9860    6.0106    1.9304  -0.0099   0.0145   0.0972
O     3.9860    6.0106    5.8724  -0.0099   0.0145   0.0972
O     2.0158    0.0957    1.9299  -0.1266   0.0089   0.0514
O     2.0158    0.0957    5.8719  -0.1266   0.0089   0.0514
O     2.0158    4.0377    1.9299  -0.1266   0.0089   0.0514
O     2.0158    4.0377    5.8719  -0.1266   0.0089   0.0514
O     5.9578    0.0957    1.9299  -0.1266   0.0089   0.0514
O     5.9578    0.0957    5.8719  -0.1266   0.0089   0.0514
O     5.9578    4.0377    1.9299  -0.1266   0.0089   0.0514
O     5.9578    4.0377    5.8719  -0.1266   0.0089   0.0514
O     2.0145    2.0676    3.8997   0.0046   0.0264   0.1171
O     2.0145    2.0676    7.8417   0.0046   0.0264   0.1171
O     2.0145    6.0096    3.8997   0.0046   0.0264   0.1171
O     2.0145    6.0096    7.8417   0.0046   0.0264   0.1171
O     5.9566    2.0676    3.8997   0.0046   0.0264   0.1171
O     5.9566    2.0676    7.8417   0.0046   0.0264   0.1171
O     5.9566    6.0096    3.8997   0.0046   0.0264   0.1171
O     5.9566    6.0096    7.8417   0.0046   0.0264   0.1171
    40
Mode_2    207.5 cm-1          
Sr    0.0357    0.0291    3.9409  -0.0231   0.1589  -0.1581
Sr    0.0357    0.0291    7.8830  -0.0231   0.1589  -0.1581
Sr    0.0357    3.9711    3.9409  -0.0231   0.1589  -0.1581
Sr    0.0357    3.9711    7.8830  -0.0231   0.1589  -0.1581
Sr    3.9777    0.0291    3.9409  -0.0231   0.1589  -0.1581
Sr    3.9777    0.0291    7.8830  -0.0231   0.1589  -0.1581
Sr    3.9777    3.9711    3.9409  -0.0231   0.1589  -0.1581
Sr    3.9777    3.9711    7.8830  -0.0231   0.1589  -0.1581
Ti    2.0064    1.9920    1.9827  -0.0359  -0.0132   0.0765
Ti    2.0064    1.9920    5.9248  -0.0359  -0.0132   0.0765
Ti    2.0064    5.9340    1.9827  -0.0359  -0.0132   0.0765
Ti    2.0064    5.9340    5.9248  -0.0359  -0.0132   0.0765
Ti    5.9484    1.9920    1.9827  -0.0359  -0.0132   0.0765
Ti    5.9484    1.9920    5.9248  -0.0359  -0.0132   0.0765
Ti    5.9484    5.9340    1.9827  -0.0359  -0.0132   0.0765
Ti    5.9484    5.9340    5.9248  -0.0359  -0.0132   0.0765
O     0.0440    2.0685    1.9304   0.0194  -0.1748  -0.0078
O     0.0440    2.0685    5.8724   0.0194  -0.1748  -0.0078
O     0.0440    6.0106    1.9304   0.0194  -0.1748  -0.0078
O     0.0440    6.0106    5.8724   0.0194  -0.1748  -0.0078
O     3.9860    2.0685    1.9304   0.0194  -0.1748  -0.0078
O     3.9860    2.0685    5.8724   0.0194  -0.1748  -0.0078
O     3.9860    6.0106    1.9304   0.0194  -0.1748  -0.0078
O     3.9860    6.0106    5.8724   0.0194  -0.1748  -0.0078
O     2.0158    0.0957    1.9299  -0.3092  -0.0714   0.0163
O     2.0158    0.0957    5.8719  -0.3092  -0.0714   0.0163
O     2.0158    4.0377    1.9299  -0.3092  -0.0714   0.0163
O     2.0158    4.0377    5.8719  -0.3092  -0.0714   0.0163
O     5.9578    0.0957    1.9299  -0.3092  -0.0714   0.0163
O     5.9578    0.0957    5.8719  -0.3092  -0.0714   0.0163
O     5.9578    4.0377    1.9299  -0.3092  -0.0714   0.0163
O     5.9578    4.0377    5.8719  -0.3092  -0.0714   0.0163
O     2.0145    2.0676    3.8997   0.2945   0.0370   0.0438
O     2.0145    2.0676    7.8417   0.2945   0.0370   0.0438
O     2.0145    6.0096    3.8997   0.2945   0.0370   0.0438
O     2.0145    6.0096    7.8417   0.2945   0.0370   0.0438
O     5.9566    2.0676    3.8997   0.2945   0.0370   0.0438
O     5.9566    2.0676    7.8417   0.2945   0.0370   0.0438
O     5.9566    6.0096    3.8997   0.2945   0.0370   0.0438
O     5.9566    6.0096    7.8417   0.2945   0.0370   0.0438
    40
Mode_3    389.2 cm-1          
Sr    0.0357    0.0291    3.9409   0.2320   0.0285   0.0314
Sr    0.0357    0.0291    7.8830   0.2320   0.0285   0.0314
Sr    0.0357    3.9711    3.9409   0.2320   0.0285   0.0314
Sr    0.0357    3.9711    7.8830   0.2320   0.0285   0.0314
Sr    3.9777    0.0291    3.9409   0.2320   0.0285   0.0314
Sr    3.9777    0.0291    7.8830   0.2320   0.0285   0.0314
Sr    3.9777    3.9711    3.9409   0.2320   0.0285   0.0314
Sr    3.9777    3.9711    7.8830   0.2320   0.0285   0.0314
Ti    2.0064    1.9920    1.9827   0.0072  -0.1165   0.2409
Ti    2.0064    1.9920    5.9248   0.0072  -0.1165   0.2409
Ti    2.0064    5.9340    1.9827   0.0072  -0.1165   0.2409
Ti    2.0064    5.9340    5.9248   0.0072  -0.1165   0.2409
Ti    5.9484    1.9920    1.9827   0.0072  -0.1165   0.2409
Ti    5.9484    1.9920    5.9248   0.0072  -0.1165   0.2409
Ti    5.9484    5.9340    1.9827   0.0072  -0.1165   0.2409
Ti    5.9484    5.9340    5.9248   0.0072  -0.1165   0.2409
O     0.0440    2.0685    1.9304   0.2169  -0.0538  -0.0315
O     0.0440    2.0685    5.8724   0.2169  -0.0538  -0.0315
O     0.0440    6.0106    1.9304   0.2169  -0.0538  -0.0315
O     0.0440    6.0106    5.8724   0.2169  -0.0538  -0.0315
O     3.9860    2.0685    1.9304   0.2169  -0.0538  -0.0315
O     3.9860    2.0685    5.8724   0.2169  -0.0538  -0.0315
O     3.9860    6.0106    1.9304   0.2169  -0.0538  -0.0315
O     3.9860    6.0106    5.8724   0.2169  -0.0538  -0.0315
O     2.0158    0.0957    1.9299  -0.0863   0.2436  -0.0370
O     2.0158    0.0957    5.8719  -0.0863   0.2436  -0.0370
O     2.0158    4.0377    1.9299  -0.0863   0.2436  -0.0370
O     2.0158    4.0377    5.8719  -0.0863   0.2436  -0.0370
O     5.9578    0.0957    1.9299  -0.0863   0.2436  -0.0370
O     5.9578    0.0957    5.8719  -0.0863   0.2436  -0.0370
O     5.9578    4.0377    1.9299  -0.0863   0.2436  -0.0370
O     5.9578    4.0377    5.8719  -0.0863   0.2436  -0.0370
O     2.0145    2.0676    3.8997  -0.1492  -0.0856  -0.0634
O     2.0145    2.0676    7.8417  -0.1492  -0.0856  -0.0634
O     2.0145    6.0096    3.8997  -0.1492  -0.0856  -0.0634
O     2.0145    6.0096    7.8417  -0.1492  -0.0856  -0.0634
O     5.9566    2.0676    3.8997  -0.1492  -0.0856  -0.0634
O     5.9566    2.0676    7.8417  -0.1492  -0.0856  -0.0634
O     5.9566    6.0096    3.8997  -0.1492  -0.0856  -0.0634
O     5.9566    6.0096    7.8417  -0.1492  -0.0856  -0.0634
    40
Mode_4    430.3 cm-1          
Sr    0.0357    0.0291    3.9409  -0.0285   0.1301   0.2874
Sr    0.0357    0.0291    7.8830  -0.0285   0.1301   0.2874
Sr    0.0357    3.9711    3.9409  -0.0285   0.1301   0.2874
Sr    0.0357    3.9711    7.8830  -0.0285   0.1301   0.2874
Sr    3.9777    0.0291    3.9409  -0.0285   0.1301   0.2874
Sr    3.9777    0.0291    7.8830  -0.0285   0.1301   0.2874
Sr    3.9777    3.9711    3.9409  -0.0285   0.1301   0.2874
Sr    3.9777    3.9711    7.8830  -0.0285   0.1301   0.2874
Ti    2.0064    1.9920    1.9827  -0.0746   0.0540  -0.0116
Ti    2.0064    1.9920    5.9248  -0.0746   0.0540  -0.0116
Ti    2.0064    5.9340    1.9827  -0.0746   0.0540  -0.0116
Ti    2.0064    5.9340    5.9248  -0.0746   0.0540  -0.0116
Ti    5.9484    1.9920    1.9827  -0.0746   0.0540  -0.0116
Ti    5.9484    1.9920    5.9248  -0.0746   0.0540  -0.0116
Ti    5.9484    5.9340    1.9827  -0.0746   0.0540  -0.0116
Ti    5.9484    5.9340    5.9248  -0.0746   0.0540  -0.0116
O     0.0440    2.0685    1.9304  -0.0499  -0.1503   0.0836
O     0.0440    2.0685    5.8724  -0.0499  -0.1503   0.0836
O     0.0440    6.0106    1.9304  -0.0499  -0.1503   0.0836
O     0.0440    6.0106    5.8724  -0.0499  -0.1503   0.0836
O     3.9860    2.0685    1.9304  -0.0499  -0.1503   0.0836
O     3.9860    2.0685    5.8724  -0.0499  -0.1503   0.0836
O     3.9860    6.0106    1.9304  -0.0499  -0.1503   0.0836
O     3.9860    6.0106    5.8724  -0.0499  -0.1503   0.0836
O     2.0158    0.0957    1.9299  -0.1668   0.0218   0.1070
O     2.0158    0.0957    5.8719  -0.1668   0.0218   0.1070
O     2.0158    4.0377    1.9299  -0.1668   0.0218   0.1070
O     2.0158    4.0377    5.8719  -0.1668   0.0218   0.1070
O     5.9578    0.0957    1.9299  -0.1668   0.0218   0.1070
O     5.9578    0.0957    5.8719  -0.1668   0.0218   0.1070
O     5.9578    4.0377    1.9299  -0.1668   0.0218   0.1070
O     5.9578    4.0377    5.8719  -0.1668   0.0218   0.1070
O     2.0145    2.0676    3.8997   0.2153  -0.0299  -0.2281
O     2.0145    2.0676    7.8417   0.2153  -0.0299  -0.2281
O     2.0145    6.0096    3.8997   0.2153  -0.0299  -0.2281
O     2.0145    6.0096    7.8417   0.2153  -0.0299  -0.2281
O     5.9566    2.0676    3.8997   0.2153  -0.0299  -0.2281
O     5.9566    2.0676    7.8417   0.2153  -0.0299  -0.2281
O     5.9566    6.0096    3.8997   0.2153  -0.0299  -0.2281
O     5.9566    6.0096    7.8417   0.2153  -0.0299  -0.2281
    40
Mode_5    496.1 cm-1          
Sr    0.0357    0.0291    3.9409   0.0291  -0.2340  -0.0277
Sr    0.0357    0.0291    7.8830   0.0291  -0.2340  -0.0277
Sr    0.0357    3.9711    3.9409   0.0291  -0.2340  -0.0277
Sr    0.0357    3.9711    7.8830   0.0291  -0.2340  -0.0277
Sr    3.9777    0.0291    3.9409   0.0291  -0.2340  -0.0277
Sr    3.9777    0.0291    7.8830   0.0291  -0.2340  -0.0277
Sr    3.9777    3.9711    3.9409   0.0291  -0.2340  -0.0277
Sr    3.9777    3.9711    7.8830   0.0291  -0.2340  -0.0277
Ti    2.0064    1.9920    1.9827  -0.0948   0.0453   0.0354
Ti    2.0064    1.9920    5.9248  -0.0948   0.0453   0.0354
Ti    2.0064    5.9340    1.9827  -0.0948   0.0453   0.0354
Ti    2.0064    5.9340    5.9248  -0.0948   0.0453   0.0354
Ti    5.9484    1.9920    1.9827  -0.0948   0.0453   0.0354
Ti    5.9484    1.9920    5.9248  -0.0948   0.0453   0.0354
Ti    5.9484    5.9340    1.9827  -0.0948   0.0453   0.0354
Ti    5.9484    5.9340    5.9248  -0.0948   0.0453   0.0354
O     0.0440    2.0685    1.9304  -0.0349  -0.1789   0.0737
O     0.0440    2.0685    5.8724  -0.0349  -0.1789   0.0737
O     0.0440    6.0106    1.9304  -0.0349  -0.1789   0.0737
O     0.0440    6.0106    5.8724  -0.0349  -0.1789   0.0737
O     3.9860    2.0685    1.9304  -0.0349  -0.1789   0.0737
O     3.9860    2.0685    5.8724  -0.0349  -0.1789   0.0737
O     3.9860    6.0106    1.9304  -0.0349  -0.1789   0.0737
O     3.9860    6.0106    5.8724  -0.0349  -0.1789   0.0737
O     2.0158    0.0957    1.9299  -0.2296   0.0140   0.0999
O     2.0158    0.0957    5.8719  -0.2296   0.0140   0.0999
O     2.0158    4.0377    1.9299  -0.2296   0.0140   0.0999
O     2.0158    4.0377    5.8719  -0.2296   0.0140   0.0999
O     5.9578    0.0957    1.9299  -0.2296   0.0140   0.0999
O     5.9578    0.0957    5.8719  -0.2296   0.0140   0.0999
O     5.9578    4.0377    1.9299  -0.2296   0.0140   0.0999
O     5.9578    4.0377    5.8719  -0.2296   0.0140   0.0999
O     2.0145    2.0676    3.8997   0.2555  -0.0239  -0.2097
O     2.0145    2.0676    7.8417   0.2555  -0.0239  -0.2097
O     2.0145    6.0096    3.8997   0.2555  -0.0239  -0.2097
O     2.0145    6.0096    7.8417   0.2555  -0.0239  -0.2097
O     5.9566    2.0676    3.8997   0.2555  -0.0239  -0.2097
O     5.9566    2.0676    7.8417   0.2555  -0.0239  -0.2097
O     5.9566    6.0096    3.8997   0.2555  -0.0239  -0.2097
O     5.9566    6.0096    7.8417   0.2555  -0.0239  -0.2097
    40
Mode_6    671.3 cm-1          
Sr    0.0357    0.0291    3.9409  -0.1109  -0.0090  -0.0071
Sr    0.0357    0.0291    7.8830  -0.1109  -0.0090  -0.0071
Sr    0.0357    3.9711    3.9409  -0.1109  -0.0090  -0.0071
Sr    0.0357    3.9711    7.8830  -0.1109  -0.0090  -0.0071
Sr    3.9777    0.0291    3.9409  -0.1109  -0.0090  -0.0071
Sr    3.9777    0.0291    7.8830  -0.1109  -0.0090  -0.0071
Sr    3.9777    3.9711    3.9409  -0.1109  -0.0090  -0.0071
Sr    3.9777    3.9711    7.8830  -0.1109  -0.0090  -0.0071
Ti    2.0064    1.9920    1.9827  -0.1543  -0.1416  -0.1050
Ti    2.0064    1.9920    5.9248  -0.1543  -0.1416  -0.1050
Ti    2.0064    5.9340    1.9827  -0.1543  -0.1416  -0.1050
Ti    2.0064    5.9340    5.9248  -0.1543  -0.1416  -0.1050
Ti    5.9484    1.9920    1.9827  -0.1543  -0.1416  -0.1050
Ti    5.9484    1.9920    5.9248  -0.1543  -0.1416  -0.1050
Ti    5.9484    5.9340    1.9827  -0.1543  -0.1416  -0.1050
Ti    5.9484    5.9340    5.9248  -0.1543  -0.1416  -0.1050
O     0.0440    2.0685    1.9304   0.2324  -0.0708  -0.0087
O     0.0440    2.0685    5.8724   0.2324  -0.0708  -0.0087
O     0.0440    6.0106    1.9304   0.2324  -0.0708  -0.0087
O     0.0440    6.0106    5.8724   0.2324  -0.0708  -0.0087
O     3.9860    2.0685    1.9304   0.2324  -0.0708  -0.0087
O     3.9860    2.0685    5.8724   0.2324  -0.0708  -0.0087
O     3.9860    6.0106    1.9304   0.2324  -0.0708  -0.0087
O     3.9860    6.0106    5.8724   0.2324  -0.0708  -0.0087
O     2.0158    0.0957    1.9299  -0.1716   0.2704  -0.0350
O     2.0158    0.0957    5.8719  -0.1716   0.2704  -0.0350
O     2.0158    4.0377    1.9299  -0.1716   0.2704  -0.0350
O     2.0158    4.0377    5.8719  -0.1716   0.2704  -0.0350
O     5.9578    0.0957    1.9299  -0.1716   0.2704  -0.0350
O     5.9578    0.0957    5.8719  -0.1716   0.2704  -0.0350
O     5.9578    4.0377    1.9299  -0.1716   0.2704  -0.0350
O     5.9578    4.0377    5.8719  -0.1716   0.2704  -0.0350
O     2.0145    2.0676    3.8997  -0.1957  -0.1050   0.0217
O     2.0145    2.0676    7.8417  -0.1957  -0.1050   0.0217
O     2.0145    6.0096    3.8997  -0.1957  -0.1050   0.0217
O     2.0145    6.0096    7.8417  -0.1957  -0.1050   0.0217
O     5.9566    2.0676    3.8997  -0.1957  -0.1050   0.0217
O     5.9566    2.0676    7.8417  -0.1957  -0.1050   0.0217
O     5.9566    6.0096    3.8997  -0.1957  -0.1050   0.0217
O     5.9566    6.0096    7.8417  -0.1957  -0.1050   0.0217
    40
Mode_7    722.7 cm-1          
Sr    0.0357    0.0291    3.9409  -0.0140   0.0577  -0.0791
Sr    0.0357    0.0291    7.8830  -0.0140   0.0577  -0.0791
Sr    0.0357    3.9711    3.9409  -0.0140   0.0577  -0.0791
Sr    0.0357    3.9711    7.8830  -0.0140   0.0577  -0.0791
Sr    3.9777    0.0291    3.9409  -0.0140   0.0577  -0.0791
Sr    3.9777    0.0291    7.8830  -0.0140   0.0577  -0.0791
Sr    3.9777    3.9711    3.9409  -0.0140   0.0577  -0.0791
Sr    3.9777    3.9711    7.8830  -0.0140   0.0577  -0.0791
Ti    2.0064    1.9920    1.9827  -0.1466   0.2159   0.0575
Ti    2.0064    1.9920    5.9248  -0.1466   0.2159   0.0575
Ti    2.0064    5.9340    1.9827  -0.1466   0.2159   0.0575
Ti    2.0064    5.9340    5.9248  -0.1466   0.2159   0.0575
Ti    5.9484    1.9920    1.9827  -0.1466   0.2159   0.0575
Ti    5.9484    1.9920    5.9248  -0.1466   0.2159   0.0575
Ti    5.9484    5.9340    1.9827  -0.1466   0.2159   0.0575
Ti    5.9484    5.9340    5.9248  -0.1466   0.2159   0.0575
O     0.0440    2.0685    1.9304  -0.0464   0.0826   0.0692
O     0.0440    2.0685    5.8724  -0.0464   0.0826   0.0692
O     0.0440    6.0106    1.9304  -0.0464   0.0826   0.0692
O     0.0440    6.0106    5.8724  -0.0464   0.0826   0.0692
O     3.9860    2.0685    1.9304  -0.0464   0.0826   0.0692
O     3.9860    2.0685    5.8724  -0.0464   0.0826   0.0692
O     3.9860    6.0106    1.9304  -0.0464   0.0826   0.0692
O     3.9860    6.0106    5.8724  -0.0464   0.0826   0.0692
O     2.0158    0.0957    1.9299   0.1539   0.1724   0.0639
O     2.0158    0.0957    5.8719   0.1539   0.1724   0.0639
O     2.0158    4.0377    1.9299   0.1539   0.1724   0.0639
O     2.0158    4.0377    5.8719   0.1539   0.1724   0.0639
O     5.9578    0.0957    1.9299   0.1539   0.1724   0.0639
O     5.9578    0.0957    5.8719   0.1539   0.1724   0.0639
O     5.9578    4.0377    1.9299   0.1539   0.1724   0.0639
O     5.9578    4.0377    5.8719   0.1539   0.1724   0.0639
O     2.0145    2.0676    3.8997  -0.1723  -0.0508  -0.3087
O     2.0145    2.0676    7.8417  -0.1723  -0.0508  -0.3087
O     2.0145    6.0096    3.8997  -0.1723  -0.0508  -0.3087
O     2.0145    6.0096    7.8417  -0.1723  -0.0508  -0.3087
O     5.9566    2.0676    3.8997  -0.1723  -0.0508  -0.3087
O     5.9566    2.0676    7.8417  -0.1723  -0.0508  -0.3087
O     5.9566    6.0096    3.8997  -0.1723  -0.0508  -0.3087
O     5.9566    6.0096    7.8417  -0.1723  -0.0508  -0.3087
    40
Mode_8    791.2 cm-1          
Sr    0.0357    0.0291    3.9409  -0.0287  -0.0019  -0.0161
Sr    0.0357    0.0291    7.8830  -0.0287  -0.0019  -0.0161
Sr    0.0357    3.9711    3.9409  -0.0287  -0.0019  -0.0161
Sr    0.0357    3.9711    7.8830  -0.0287  -0.0019  -0.0161
Sr    3.9777    0.0291    3.9409  -0.0287  -0.0019  -0.0161
Sr    3.9777    0.0291    7.8830  -0.0287  -0.0019  -0.0161
Sr    3.9777    3.9711    3.9409  -0.0287  -0.0019  -0.0161
Sr    3.9777    3.9711    7.8830  -0.0287  -0.0019  -0.0161
Ti    2.0064    1.9920    1.9827   0.2973   0.1447  -0.0785
Ti    2.0064    1.9920    5.9248   0.2973   0.1447  -0.0785
Ti    2.0064    5.9340    1.9827   0.2973   0.1447  -0.0785
Ti    2.0064    5.9340    5.9248   0.2973   0.1447  -0.0785
Ti    5.9484    1.9920    1.9827   0.2973   0.1447  -0.0785
Ti    5.9484    1.9920    5.9248   0.2973   0.1447  -0.0785
Ti    5.9484    5.9340    1.9827   0.2973   0.1447  -0.0785
Ti    5.9484    5.9340    5.9248   0.2973   0.1447  -0.0785
O     0.0440    2.0685    1.9304   0.2295  -0.1036   0.0119
O     0.0440    2.0685    5.8724   0.2295  -0.1036   0.0119
O     0.0440    6.0106    1.9304   0.2295  -0.1036   0.0119
O     0.0440    6.0106    5.8724   0.2295  -0.1036   0.0119
O     3.9860    2.0685    1.9304   0.2295  -0.1036   0.0119
O     3.9860    2.0685    5.8724   0.2295  -0.1036   0.0119
O     3.9860    6.0106    1.9304   0.2295  -0.1036   0.0119
O     3.9860    6.0106    5.8724   0.2295  -0.1036   0.0119
O     2.0158    0.0957    1.9299  -0.1305   0.2549   0.0132
O     2.0158    0.0957    5.8719  -0.1305   0.2549   0.0132
O     2.0158    4.0377    1.9299  -0.1305   0.2549   0.0132
O     2.0158    4.0377    5.8719  -0.1305   0.2549   0.0132
O     5.9578    0.0957    1.9299  -0.1305   0.2549   0.0132
O     5.9578    0.0957    5.8719  -0.1305   0.2549   0.0132
O     5.9578    4.0377    1.9299  -0.1305   0.2549   0.0132
O     5.9578    4.0377    5.8719  -0.1305   0.2549   0.0132
O     2.0145    2.0676    3.8997   0.0085  -0.0791  -0.1069
O     2.0145    2.0676    7.8417   0.0085  -0.0791  -0.1069
O     2.0145    6.0096    3.8997   0.0085  -0.0791  -0.1069
O     2.0145    6.0096    7.8417   0.0085  -0.0791  -0.1069
O     5.9566    2.0676    3.8997   0.0085  -0.0791  -0.1069
O     5.9566    2.0676    7.8417   0.0085  -0.0791  -0.1069
O     5.9566    6.0096    3.8997   0.0085  -0.0791  -0.1069
O     5.9566    6.0096    7.8417   0.0085  -0.0791  -0.1069
    40
Mode_9    817.8 cm-1          
Sr    0.0357    0.0291    3.9409  -0.0128  -0.0297   0.0485
Sr    0.0357    0.0291    7.8830  -0.0128  -0.0297   0.0485
Sr    0.0357    3.9711    3.9409  -0.0128  -0.0297   0.0485
Sr    0.0357    3.9711    7.8830  -0.0128  -0.0297   0.0485
Sr    3.9777    0.0291    3.9409  -0.0128  -0.0297   0.0485
Sr    3.9777    0.0291    7.8830  -0.0128  -0.0297   0.0485
Sr    3.9777    3.9711    3.9409  -0.0128  -0.0297   0.0485
Sr    3.9777    3.9711    7.8830  -0.0128  -0.0297   0.0485
Ti    2.0064    1.9920    1.9827  -0.0741   0.2049   0.0857
Ti    2.0064    1.9920    5.9248  -0.0741   0.2049   0.0857
Ti    2.0064    5.9340    1.9827  -0.0741   0.2049   0.0857
Ti    2.0064    5.9340    5.9248  -0.0741   0.2049   0.0857
Ti    5.9484    1.9920    1.9827  -0.0741   0.2049   0.0857
Ti    5.9484    1.9920    5.9248  -0.0741   0.2049   0.0857
Ti    5.9484    5.9340    1.9827  -0.0741   0.2049   0.0857
Ti    5.9484    5.9340    5.9248  -0.0741   0.2049   0.0857
O     0.0440    2.0685    1.9304   0.1234   0.0424  -0.0589
O     0.0440    2.0685    5.8724   0.1234   0.0424  -0.0589
O     0.0440    6.0106    1.9304   0.1234   0.0424  -0.0589
O     0.0440    6.0106    5.8724   0.1234   0.0424  -0.0589
O     3.9860    2.0685    1.9304   0.1234   0.0424  -0.0589
O     3.9860    2.0685    5.8724   0.1234   0.0424  -0.0589
O     3.9860    6.0106    1.9304   0.1234   0.0424  -0.0589
O     3.9860    6.0106    5.8724   0.1234   0.0424  -0.0589
O     2.0158    0.0957    1.9299  -0.1554   0.0273  -0.0799
O     2.0158    0.0957    5.8719  -0.1554   0.0273  -0.0799
O     2.0158    4.0377    1.9299  -0.1554   0.0273  -0.0799
O     2.0158    4.0377    5.8719  -0.1554   0.0273  -0.0799
O     5.9578    0.0957    1.9299  -0.1554   0.0273  -0.0799
O     5.9578    0.0957    5.8719  -0.1554   0.0273  -0.0799
O     5.9578    4.0377    1.9299  -0.1554   0.0273  -0.0799
O     5.9578    4.0377    5.8719  -0.1554   0.0273  -0.0799
O     2.0145    2.0676    3.8997  -0.0486   0.0865   0.4002
O     2.0145    2.0676    7.8417  -0.0486   0.0865   0.4002
O     2.0145    6.0096    3.8997  -0.0486   0.0865   0.4002
O     2.0145    6.0096    7.8417  -0.0486   0.0865   0.4002
O     5.9566    2.0676    3.8997  -0.0486   0.0865   0.4002
O     5.9566    2.0676    7.8417  -0.0486   0.0865   0.4002
O     5.9566    6.0096    3.8997  -0.0486   0.0865   0.4002
O     5.9566    6.0096    7.8417  -0.0486   0.0865   0.4002
