24
quartz.csf #jmolscript:select connected(4);polyhedra collapsed 4 edges;
O 2.941 -1.349 -1.175
O 3.990 -3.372 0.141
O -0.144 -4.897 -0.832
O 3.012 0.559 0.635
O -0.349 -2.500 -1.984
O 1.026 0.372 -1.059
O 1.262 -1.446 0.830
O 3.369 -3.681 2.665
O 0.057 -2.378 2.908
O 5.195 -2.439 -1.936
O 4.195 -5.769 1.294
O 0.092 -6.714 1.057
O 1.842 -4.710 0.862
O -0.970 -2.808 0.539
O -0.992 -0.356 1.591
O 1.770 -6.618 -0.948
O -2.498 -3.837 -1.263
O 2.963 -3.802 -2.227
Si 0.894 -5.734 0.081
Si 3.732 -2.732 -1.319
Si 3.386 -4.392 1.215
Si 2.064 -0.465 -0.147
Si -0.201 -1.739 1.447
Si -0.954 -3.520 -0.911
