NSC7891 asparagine
APtclserve10180306553D 0   0.00000     0.00000NCI NS
 
 17 16  0  0  0  0  0  0  0  0999 V2000
    0.0000    0.0000    0.0000 N   0  0  0  0  0  0  0  0  0  0  0  0
    0.6800   -1.0800    0.6800 C   0  0  0  0  0  0  0  0  0  0  0  0
    1.3800   -0.5600    1.9400 C   0  0  0  0  0  0  0  0  0  0  0  0
    2.6600   -1.3200    2.2400 C   0  0  0  0  0  0  0  0  0  0  0  0
    3.8600   -0.6800    2.0800 N   0  0  0  0  0  0  0  0  0  0  0  0
    2.6200   -2.4600    2.6000 O   0  0  0  0  0  0  0  0  0  0  0  0
   -0.3000   -2.1800    1.0000 C   0  0  0  0  0  0  0  0  0  0  0  0
   -0.7800   -2.8600    0.1200 O   0  0  0  0  0  0  0  0  0  0  0  0
   -0.5800   -2.3400    2.2800 O   0  0  0  0  0  0  0  0  0  0  0  0
    0.6545    0.7264   -0.2097 H   0  0  0  0  0  0  0  0  0  0  0  0
   -0.4022   -0.3417   -0.8494 H   0  0  0  0  0  0  0  0  0  0  0  0
    1.4343   -1.4854    0.0384 H   0  0  0  0  0  0  0  0  0  0  0  0
    0.7145   -0.6983    2.7663 H   0  0  0  0  0  0  0  0  0  0  0  0
    1.6177    0.4739    1.8004 H   0  0  0  0  0  0  0  0  0  0  0  0
    4.7143   -1.1659    2.2646 H   0  0  0  0  0  0  0  0  0  0  0  0
    3.8820    0.2732    1.7786 H   0  0  0  0  0  0  0  0  0  0  0  0
   -1.1939   -3.0249    2.5551 H   0  0  0  0  0  0  0  0  0  0  0  0
  1  2  1  0  0  0  0
  2  3  1  0  0  0  0
  3  4  1  0  0  0  0
  4  5  1  0  0  0  0
  4  6  2  0  0  0  0
  2  7  1  0  0  0  0
  7  8  2  0  0  0  0
  7  9  1  0  0  0  0
  1 10  1  0  0  0  0
  1 11  1  0  0  0  0
  2 12  1  0  0  0  0
  3 13  1  0  0  0  0
  3 14  1  0  0  0  0
  5 15  1  0  0  0  0
  5 16  1  0  0  0  0
  9 17  1  0  0  0  0
M  END
$$$$
