NSC3973 aspartic acid
APtclserve10180306563D 0   0.00000     0.00000NCI NS
 
 16 15  0  0  0  0  0  0  0  0999 V2000
    0.0000    0.0000    0.0000 N   0  0  0  0  0  0  0  0  0  0  0  0
    0.4000   -0.4000    1.3400 C   0  0  0  0  0  0  0  0  0  0  0  0
    1.4000    0.5800    1.9200 C   0  0  0  0  0  0  0  0  0  0  0  0
    2.0200    0.0800    3.2000 C   0  0  0  0  0  0  0  0  0  0  0  0
    2.7600    0.7800    3.8400 O   0  0  0  0  0  0  0  0  0  0  0  0
    1.7000   -1.1600    3.5200 O   0  0  0  0  0  0  0  0  0  0  0  0
   -0.8200   -0.5600    2.2000 C   0  0  0  0  0  0  0  0  0  0  0  0
   -1.3600    0.3800    2.7200 O   0  0  0  0  0  0  0  0  0  0  0  0
   -1.2600   -1.8200    2.3200 O   0  0  0  0  0  0  0  0  0  0  0  0
    0.8129    0.1065   -0.5727 H   0  0  0  0  0  0  0  0  0  0  0  0
   -0.5953   -0.7007   -0.3933 H   0  0  0  0  0  0  0  0  0  0  0  0
    0.8970   -1.3467    1.3001 H   0  0  0  0  0  0  0  0  0  0  0  0
    0.8763    1.4858    2.1438 H   0  0  0  0  0  0  0  0  0  0  0  0
    2.1771    0.7428    1.2027 H   0  0  0  0  0  0  0  0  0  0  0  0
    2.0657   -1.5610    4.3119 H   0  0  0  0  0  0  0  0  0  0  0  0
   -2.0436   -2.0071    2.8421 H   0  0  0  0  0  0  0  0  0  0  0  0
  1  2  1  0  0  0  0
  2  3  1  0  0  0  0
  3  4  1  0  0  0  0
  4  5  2  0  0  0  0
  4  6  1  0  0  0  0
  2  7  1  0  0  0  0
  7  8  2  0  0  0  0
  7  9  1  0  0  0  0
  1 10  1  0  0  0  0
  1 11  1  0  0  0  0
  2 12  1  0  0  0  0
  3 13  1  0  0  0  0
  3 14  1  0  0  0  0
  6 15  1  0  0  0  0
  9 16  1  0  0  0  0
M  END
$$$$
