NSC8746 cysteine
APtclserve10180306573D 0   0.00000     0.00000NCI NS
 
 14 13  0  0  0  0  0  0  0  0999 V2000
    0.0000    0.0000    0.0000 N   0  0  0  0  0  0  0  0  0  0  0  0
   -0.2000   -1.1400   -0.8800 C   0  0  0  0  0  0  0  0  0  0  0  0
   -1.5600   -1.1000   -1.5000 C   0  0  0  0  0  0  0  0  0  0  0  0
   -2.5400   -0.9200   -0.8200 O   0  0  0  0  0  0  0  0  0  0  0  0
   -1.5800   -1.2600   -2.8200 O   0  0  0  0  0  0  0  0  0  0  0  0
    0.9200   -1.2000   -1.9200 C   0  0  0  0  0  0  0  0  0  0  0  0
    1.4200   -2.9200   -2.2200 S   0  0  0  0  0  0  0  0  0  0  0  0
   -0.7358    0.0321    0.6764 H   0  0  0  0  0  0  0  0  0  0  0  0
    0.8792   -0.0903    0.4678 H   0  0  0  0  0  0  0  0  0  0  0  0
   -0.1534   -2.0427   -0.3075 H   0  0  0  0  0  0  0  0  0  0  0  0
   -2.4146   -1.2359   -3.2938 H   0  0  0  0  0  0  0  0  0  0  0  0
    1.7634   -0.6543   -1.5514 H   0  0  0  0  0  0  0  0  0  0  0  0
    0.5730   -0.7695   -2.8361 H   0  0  0  0  0  0  0  0  0  0  0  0
    2.4005   -2.9474   -3.1329 H   0  0  0  0  0  0  0  0  0  0  0  0
  1  2  1  0  0  0  0
  2  3  1  0  0  0  0
  3  4  2  0  0  0  0
  3  5  1  0  0  0  0
  2  6  1  0  0  0  0
  6  7  1  0  0  0  0
  1  8  1  0  0  0  0
  1  9  1  0  0  0  0
  2 10  1  0  0  0  0
  5 11  1  0  0  0  0
  6 12  1  0  0  0  0
  6 13  1  0  0  0  0
  7 14  1  0  0  0  0
M  END
$$$$
