NSC27421 glutamine
APtclserve10180306573D 0   0.00000     0.00000NCI NS
 
 20 19  0  0  0  0  0  0  0  0999 V2000
    0.0000    0.0000    0.0000 N   0  0  0  0  0  0  0  0  0  0  0  0
    0.2800   -0.5600   -1.3000 C   0  0  0  0  0  0  0  0  0  0  0  0
    1.7200   -1.0800   -1.3800 C   0  0  0  0  0  0  0  0  0  0  0  0
    1.9400   -2.3400   -0.5400 C   0  0  0  0  0  0  0  0  0  0  0  0
    1.9000   -3.6000   -1.3600 C   0  0  0  0  0  0  0  0  0  0  0  0
    2.9600   -3.8800   -2.1600 N   0  0  0  0  0  0  0  0  0  0  0  0
    0.9400   -4.3400   -1.3200 O   0  0  0  0  0  0  0  0  0  0  0  0
   -0.7400   -1.6400   -1.6400 C   0  0  0  0  0  0  0  0  0  0  0  0
   -0.8800   -2.5800   -0.9000 O   0  0  0  0  0  0  0  0  0  0  0  0
   -1.4200   -1.4400   -2.7600 O   0  0  0  0  0  0  0  0  0  0  0  0
    0.6755    0.7066    0.2111 H   0  0  0  0  0  0  0  0  0  0  0  0
   -0.9151    0.4033   -0.0008 H   0  0  0  0  0  0  0  0  0  0  0  0
    0.1910    0.2137   -2.0337 H   0  0  0  0  0  0  0  0  0  0  0  0
    2.3615   -0.3166   -0.9919 H   0  0  0  0  0  0  0  0  0  0  0  0
    1.9464   -1.3054   -2.4012 H   0  0  0  0  0  0  0  0  0  0  0  0
    1.1451   -2.3945    0.1742 H   0  0  0  0  0  0  0  0  0  0  0  0
    2.8961   -2.2715   -0.0645 H   0  0  0  0  0  0  0  0  0  0  0  0
    2.9555   -4.7047   -2.7256 H   0  0  0  0  0  0  0  0  0  0  0  0
    3.7455   -3.2616   -2.1839 H   0  0  0  0  0  0  0  0  0  0  0  0
   -2.0861   -2.0735   -3.0367 H   0  0  0  0  0  0  0  0  0  0  0  0
  1  2  1  0  0  0  0
  2  3  1  0  0  0  0
  3  4  1  0  0  0  0
  4  5  1  0  0  0  0
  5  6  1  0  0  0  0
  5  7  2  0  0  0  0
  2  8  1  0  0  0  0
  8  9  2  0  0  0  0
  8 10  1  0  0  0  0
  1 11  1  0  0  0  0
  1 12  1  0  0  0  0
  2 13  1  0  0  0  0
  3 14  1  0  0  0  0
  3 15  1  0  0  0  0
  4 16  1  0  0  0  0
  4 17  1  0  0  0  0
  6 18  1  0  0  0  0
  6 19  1  0  0  0  0
 10 20  1  0  0  0  0
M  END
$$$$
