NSC9239 glutamic acid
APtclserve10180306583D 0   0.00000     0.00000NCI NS
 
 19 18  0  0  0  0  0  0  0  0999 V2000
    0.0000    0.0000    0.0000 N   0  0  0  0  0  0  0  0  0  0  0  0
   -1.1600   -0.5400   -0.7200 C   0  0  0  0  0  0  0  0  0  0  0  0
   -0.7600   -1.8000   -1.4800 C   0  0  0  0  0  0  0  0  0  0  0  0
    0.4000   -1.5600   -2.4400 C   0  0  0  0  0  0  0  0  0  0  0  0
    1.7400   -1.7200   -1.7400 C   0  0  0  0  0  0  0  0  0  0  0  0
    2.7400   -1.2400   -2.2400 O   0  0  0  0  0  0  0  0  0  0  0  0
    1.7200   -2.4000   -0.6000 O   0  0  0  0  0  0  0  0  0  0  0  0
   -1.7600    0.5200   -1.6000 C   0  0  0  0  0  0  0  0  0  0  0  0
   -2.0200    1.6200   -1.1800 O   0  0  0  0  0  0  0  0  0  0  0  0
   -1.9400    0.1400   -2.8600 O   0  0  0  0  0  0  0  0  0  0  0  0
    0.3920   -0.7122    0.5824 H   0  0  0  0  0  0  0  0  0  0  0  0
   -0.2889    0.7720    0.5662 H   0  0  0  0  0  0  0  0  0  0  0  0
   -1.9225   -0.8283   -0.0269 H   0  0  0  0  0  0  0  0  0  0  0  0
   -1.6033   -2.1106   -2.0607 H   0  0  0  0  0  0  0  0  0  0  0  0
   -0.4710   -2.5497   -0.7733 H   0  0  0  0  0  0  0  0  0  0  0  0
    0.3301   -0.5583   -2.8096 H   0  0  0  0  0  0  0  0  0  0  0  0
    0.3397   -2.2653   -3.2424 H   0  0  0  0  0  0  0  0  0  0  0  0
    2.5339   -2.5410   -0.1108 H   0  0  0  0  0  0  0  0  0  0  0  0
   -2.2984    0.7581   -3.5012 H   0  0  0  0  0  0  0  0  0  0  0  0
  1  2  1  0  0  0  0
  2  3  1  0  0  0  0
  3  4  1  0  0  0  0
  4  5  1  0  0  0  0
  5  6  2  0  0  0  0
  5  7  1  0  0  0  0
  2  8  1  0  0  0  0
  8  9  2  0  0  0  0
  8 10  1  0  0  0  0
  1 11  1  0  0  0  0
  1 12  1  0  0  0  0
  2 13  1  0  0  0  0
  3 14  1  0  0  0  0
  3 15  1  0  0  0  0
  4 16  1  0  0  0  0
  4 17  1  0  0  0  0
  7 18  1  0  0  0  0
 10 19  1  0  0  0  0
M  END
$$$$
