NSC27422 histidine
APtclserve10180307003D 0   0.00000     0.00000NCI NS
 
 20 20  0  0  0  0  0  0  0  0999 V2000
    0.0000    0.0000    0.0000 N   0  0  0  0  0  0  0  0  0  0  0  0
   -1.3000    0.6200   -0.1600 C   0  0  0  0  0  0  0  0  0  0  0  0
   -2.2000    0.2600    1.0000 C   0  0  0  0  0  0  0  0  0  0  0  0
   -2.5200   -1.2200    1.0200 C   0  0  0  0  0  0  0  0  0  0  0  0
   -1.7400   -2.2800    0.5600 C   0  0  0  0  0  0  0  0  0  0  0  0
   -2.4200   -3.4200    0.7600 N   0  0  0  0  0  0  0  0  0  0  0  0
   -3.6000   -3.0800    1.3600 C   0  0  0  0  0  0  0  0  0  0  0  0
   -3.6800   -1.7200    1.5200 N   0  0  0  0  0  0  0  0  0  0  0  0
   -1.1600    2.1000   -0.3400 C   0  0  0  0  0  0  0  0  0  0  0  0
   -0.7200    2.5600   -1.3800 O   0  0  0  0  0  0  0  0  0  0  0  0
   -1.5400    2.8400    0.7000 O   0  0  0  0  0  0  0  0  0  0  0  0
    0.4550    0.3824    0.8042 H   0  0  0  0  0  0  0  0  0  0  0  0
    0.5556    0.1762   -0.8125 H   0  0  0  0  0  0  0  0  0  0  0  0
   -1.7631    0.2423   -1.0476 H   0  0  0  0  0  0  0  0  0  0  0  0
   -3.1178    0.7990    0.8908 H   0  0  0  0  0  0  0  0  0  0  0  0
   -1.7093    0.5214    1.9142 H   0  0  0  0  0  0  0  0  0  0  0  0
   -0.7668   -2.1988    0.1228 H   0  0  0  0  0  0  0  0  0  0  0  0
   -2.1203   -4.3424    0.5164 H   0  0  0  0  0  0  0  0  0  0  0  0
   -4.3544   -3.7760    1.6621 H   0  0  0  0  0  0  0  0  0  0  0  0
   -1.4751    3.7969    0.6575 H   0  0  0  0  0  0  0  0  0  0  0  0
  1  2  1  0  0  0  0
  2  3  1  0  0  0  0
  3  4  1  0  0  0  0
  4  5  2  0  0  0  0
  5  6  1  0  0  0  0
  6  7  1  0  0  0  0
  7  8  2  0  0  0  0
  4  8  1  0  0  0  0
  2  9  1  0  0  0  0
  9 10  2  0  0  0  0
  9 11  1  0  0  0  0
  1 12  1  0  0  0  0
  1 13  1  0  0  0  0
  2 14  1  0  0  0  0
  3 15  1  0  0  0  0
  3 16  1  0  0  0  0
  5 17  1  0  0  0  0
  6 18  1  0  0  0  0
  7 19  1  0  0  0  0
 11 20  1  0  0  0  0
M  END
$$$$
