NSC9958 isoleucine
APtclserve10180307043D 0   0.00000     0.00000NCI NS
 
 22 21  0  0  0  0  0  0  0  0999 V2000
    0.0000    0.0000    0.0000 C   0  0  0  0  0  0  0  0  0  0  0  0
   -0.4000    1.3800   -0.5400 C   0  0  0  0  0  0  0  0  0  0  0  0
    0.8000    2.3200   -0.7000 C   0  0  0  0  0  0  0  0  0  0  0  0
    0.9800    2.7800   -2.1400 C   0  0  0  0  0  0  0  0  0  0  0  0
    1.1200    1.6400   -3.0400 N   0  0  0  0  0  0  0  0  0  0  0  0
    0.8000    3.4800    0.3000 C   0  0  0  0  0  0  0  0  0  0  0  0
    2.1600    3.7000   -2.3000 C   0  0  0  0  0  0  0  0  0  0  0  0
    3.2800    3.3400   -2.0000 O   0  0  0  0  0  0  0  0  0  0  0  0
    1.8800    4.9000   -2.8000 O   0  0  0  0  0  0  0  0  0  0  0  0
    0.6907   -0.4606   -0.6750 H   0  0  0  0  0  0  0  0  0  0  0  0
    0.4600    0.1121    0.9595 H   0  0  0  0  0  0  0  0  0  0  0  0
   -0.8719   -0.6135    0.0919 H   0  0  0  0  0  0  0  0  0  0  0  0
   -1.0679    1.8243    0.1681 H   0  0  0  0  0  0  0  0  0  0  0  0
   -0.8655    1.2527   -1.4950 H   0  0  0  0  0  0  0  0  0  0  0  0
    1.6647    1.7394   -0.4547 H   0  0  0  0  0  0  0  0  0  0  0  0
    0.0973    3.3269   -2.3981 H   0  0  0  0  0  0  0  0  0  0  0  0
    1.9598    1.1434   -2.8208 H   0  0  0  0  0  0  0  0  0  0  0  0
    1.1617    1.9645   -3.9850 H   0  0  0  0  0  0  0  0  0  0  0  0
    1.7312    4.0036    0.2389 H   0  0  0  0  0  0  0  0  0  0  0  0
   -0.0017    4.1500    0.0691 H   0  0  0  0  0  0  0  0  0  0  0  0
    0.6705    3.0969    1.2907 H   0  0  0  0  0  0  0  0  0  0  0  0
    2.5840    5.5370   -2.9420 H   0  0  0  0  0  0  0  0  0  0  0  0
  1  2  1  0  0  0  0
  2  3  1  0  0  0  0
  3  4  1  0  0  0  0
  4  5  1  0  0  0  0
  3  6  1  0  0  0  0
  4  7  1  0  0  0  0
  7  8  2  0  0  0  0
  7  9  1  0  0  0  0
  1 10  1  0  0  0  0
  1 11  1  0  0  0  0
  1 12  1  0  0  0  0
  2 13  1  0  0  0  0
  2 14  1  0  0  0  0
  3 15  1  0  0  0  0
  4 16  1  0  0  0  0
  5 17  1  0  0  0  0
  5 18  1  0  0  0  0
  6 19  1  0  0  0  0
  6 20  1  0  0  0  0
  6 21  1  0  0  0  0
  9 22  1  0  0  0  0
M  END
$$$$
