NSC9959 phenylalanine
APtclserve10180307083D 0   0.00000     0.00000NCI NS
 
 23 23  0  0  0  0  0  0  0  0999 V2000
    0.0000    0.0000    0.0000 N   0  0  0  0  0  0  0  0  0  0  0  0
    0.4000   -1.3600    0.3400 C   0  0  0  0  0  0  0  0  0  0  0  0
    0.6200   -2.2000   -0.9200 C   0  0  0  0  0  0  0  0  0  0  0  0
    1.0400   -3.5800   -0.5800 C   0  0  0  0  0  0  0  0  0  0  0  0
    0.0800   -4.5600   -0.2800 C   0  0  0  0  0  0  0  0  0  0  0  0
    0.4600   -5.8600    0.0200 C   0  0  0  0  0  0  0  0  0  0  0  0
    1.8200   -6.2000    0.0400 C   0  0  0  0  0  0  0  0  0  0  0  0
    2.8000   -5.2400   -0.2600 C   0  0  0  0  0  0  0  0  0  0  0  0
    2.4000   -3.9200   -0.5800 C   0  0  0  0  0  0  0  0  0  0  0  0
   -0.6200   -1.9800    1.2800 C   0  0  0  0  0  0  0  0  0  0  0  0
   -1.8000   -1.7000    1.1800 O   0  0  0  0  0  0  0  0  0  0  0  0
   -0.1200   -2.8200    2.1800 O   0  0  0  0  0  0  0  0  0  0  0  0
    0.6756    0.4014   -0.6185 H   0  0  0  0  0  0  0  0  0  0  0  0
   -0.0564    0.5492    0.8338 H   0  0  0  0  0  0  0  0  0  0  0  0
    1.3388   -1.3318    0.8527 H   0  0  0  0  0  0  0  0  0  0  0  0
    1.3954   -1.7438   -1.4992 H   0  0  0  0  0  0  0  0  0  0  0  0
   -0.2934   -2.2405   -1.4759 H   0  0  0  0  0  0  0  0  0  0  0  0
   -0.9581   -4.3006   -0.2828 H   0  0  0  0  0  0  0  0  0  0  0  0
   -0.2819   -6.6003    0.2353 H   0  0  0  0  0  0  0  0  0  0  0  0
    2.1136   -7.1991    0.2859 H   0  0  0  0  0  0  0  0  0  0  0  0
    3.8371   -5.5030   -0.2469 H   0  0  0  0  0  0  0  0  0  0  0  0
    3.1359   -3.1819   -0.8219 H   0  0  0  0  0  0  0  0  0  0  0  0
   -0.7025   -3.2522    2.8089 H   0  0  0  0  0  0  0  0  0  0  0  0
  1  2  1  0  0  0  0
  2  3  1  0  0  0  0
  3  4  1  0  0  0  0
  4  5  2  0  0  0  0
  5  6  1  0  0  0  0
  6  7  2  0  0  0  0
  7  8  1  0  0  0  0
  8  9  2  0  0  0  0
  4  9  1  0  0  0  0
  2 10  1  0  0  0  0
 10 11  2  0  0  0  0
 10 12  1  0  0  0  0
  1 13  1  0  0  0  0
  1 14  1  0  0  0  0
  2 15  1  0  0  0  0
  3 16  1  0  0  0  0
  3 17  1  0  0  0  0
  5 18  1  0  0  0  0
  6 19  1  0  0  0  0
  7 20  1  0  0  0  0
  8 21  1  0  0  0  0
  9 22  1  0  0  0  0
 12 23  1  0  0  0  0
M  END
$$$$
