NSC9960 serine
APtclserve10180307103D 0   0.00000     0.00000NCI NS
 
 14 13  0  0  0  0  0  0  0  0999 V2000
    0.0000    0.0000    0.0000 N   0  0  0  0  0  0  0  0  0  0  0  0
   -0.6800   -1.0000   -0.8000 C   0  0  0  0  0  0  0  0  0  0  0  0
   -1.7000   -0.3600   -1.6800 C   0  0  0  0  0  0  0  0  0  0  0  0
   -2.5800    0.3400   -1.2200 O   0  0  0  0  0  0  0  0  0  0  0  0
   -1.5800   -0.6400   -2.9800 O   0  0  0  0  0  0  0  0  0  0  0  0
    0.9200   -1.0000   -2.5600 O   0  0  0  0  0  0  0  0  0  0  0  0
    0.3400   -1.8400   -1.6000 C   0  0  0  0  0  0  0  0  0  0  0  0
   -0.6663    0.4798    0.5708 H   0  0  0  0  0  0  0  0  0  0  0  0
    0.6794   -0.4453    0.5833 H   0  0  0  0  0  0  0  0  0  0  0  0
   -1.2005   -1.6719   -0.1500 H   0  0  0  0  0  0  0  0  0  0  0  0
   -2.2107   -0.2812   -3.6085 H   0  0  0  0  0  0  0  0  0  0  0  0
    1.5607   -1.4965   -3.0744 H   0  0  0  0  0  0  0  0  0  0  0  0
    1.0891   -2.2410   -0.9496 H   0  0  0  0  0  0  0  0  0  0  0  0
   -0.1571   -2.6560   -2.0816 H   0  0  0  0  0  0  0  0  0  0  0  0
  1  2  1  0  0  0  0
  2  3  1  0  0  0  0
  3  4  2  0  0  0  0
  3  5  1  0  0  0  0
  6  7  1  0  0  0  0
  2  7  1  0  0  0  0
  1  8  1  0  0  0  0
  1  9  1  0  0  0  0
  2 10  1  0  0  0  0
  5 11  1  0  0  0  0
  6 12  1  0  0  0  0
  7 13  1  0  0  0  0
  7 14  1  0  0  0  0
M  END
$$$$
