NSC9755 valine
APtclserve10180307153D 0   0.00000     0.00000NCI NS
 
 19 18  0  0  0  0  0  0  0  0999 V2000
    0.0000    0.0000    0.0000 N   0  0  0  0  0  0  0  0  0  0  0  0
    0.9200    0.6400    0.9400 C   0  0  0  0  0  0  0  0  0  0  0  0
    0.4800    0.3600    2.3800 C   0  0  0  0  0  0  0  0  0  0  0  0
   -0.8600    1.0200    2.7200 C   0  0  0  0  0  0  0  0  0  0  0  0
    0.5400   -1.1200    2.7400 C   0  0  0  0  0  0  0  0  0  0  0  0
    2.3400    0.1800    0.6600 C   0  0  0  0  0  0  0  0  0  0  0  0
    2.8800    0.4400   -0.3800 O   0  0  0  0  0  0  0  0  0  0  0  0
    2.9000   -0.5200    1.6400 O   0  0  0  0  0  0  0  0  0  0  0  0
   -0.9337    0.3052    0.1874 H   0  0  0  0  0  0  0  0  0  0  0  0
    0.2512    0.2503   -0.9350 H   0  0  0  0  0  0  0  0  0  0  0  0
    0.8984    1.7018    0.8098 H   0  0  0  0  0  0  0  0  0  0  0  0
    1.2016    0.8304    3.0148 H   0  0  0  0  0  0  0  0  0  0  0  0
   -1.6455    0.5289    2.1846 H   0  0  0  0  0  0  0  0  0  0  0  0
   -1.0406    0.9394    3.7716 H   0  0  0  0  0  0  0  0  0  0  0  0
   -0.8298    2.0527    2.4414 H   0  0  0  0  0  0  0  0  0  0  0  0
   -0.3916   -1.4199    3.1727 H   0  0  0  0  0  0  0  0  0  0  0  0
    1.3293   -1.2842    3.4435 H   0  0  0  0  0  0  0  0  0  0  0  0
    0.7244   -1.6948    1.8565 H   0  0  0  0  0  0  0  0  0  0  0  0
    3.7945   -0.8540    1.5408 H   0  0  0  0  0  0  0  0  0  0  0  0
  1  2  1  0  0  0  0
  2  3  1  0  0  0  0
  3  4  1  0  0  0  0
  3  5  1  0  0  0  0
  2  6  1  0  0  0  0
  6  7  2  0  0  0  0
  6  8  1  0  0  0  0
  1  9  1  0  0  0  0
  1 10  1  0  0  0  0
  2 11  1  0  0  0  0
  3 12  1  0  0  0  0
  4 13  1  0  0  0  0
  4 14  1  0  0  0  0
  4 15  1  0  0  0  0
  5 16  1  0  0  0  0
  5 17  1  0  0  0  0
  5 18  1  0  0  0  0
  8 19  1  0  0  0  0
M  END
$$$$
